v2012_PF_mdl.m
Bus.con = [ ... 
  1  115  0.98444  -0.26004  1  1;
  2  115  0.98444  -0.26004  1  1;
  3  230  0.96856  -0.61292  1  1;
  4  230  0.953  -0.54917  1  1;
  5  115  1.0023  -0.25717  1  1;
  6  230  1.0002  -0.2833  1  1;
  7  230  1.008  -0.27165  1  1;
  8  400  1.0265  -0.25382  1  1;
  9  115  0.98444  -0.26004  1  1;
  10  115  1.0023  -0.25717  1  1;
  11  115  1.0023  -0.25717  1  1;
  12  115  0.98444  -0.26004  1  1;
  13  230  1.0576  -0.61106  1  1;
  14  230  0.96771  -0.42846  1  1;
  15  230  0.99306  -0.51836  1  1;
  16  115  0.98444  -0.26004  1  1;
  17  230  1.0195  -0.72939  1  1;
  18  230  0.95441  -0.84457  1  1;
  19  230  0.92897  -0.59157  1  1;
  20  115  1.0023  -0.25717  1  1;
  21  230  0.99766  -0.53707  1  1;
  22  115  0.99722  -0.20566  1  1;
  23  400  1.07  -0.020149  1  1;
  24  115  1.0009  -0.19751  1  1;
  25  230  1.0178  -0.22895  1  1;
  26  230  0.94143  -0.58376  1  1;
  27  115  1.0023  -0.25717  1  1;
  28  115  1.0447  -0.081846  1  1;
  29  230  1.0183  -0.23912  1  1;
  30  230  0.9367  -0.47429  1  1;
  31  400  0.90978  -0.37531  1  1;
  32  230  0.97044  -0.53562  1  1;
  33  115  1.02  -0.118  1  1;
  34  138  1.0046  -0.90972  1  1;
  35  230  0.99316  -0.83224  1  1;
  36  400  0.96966  -0.72924  1  1;
  37  230  1.0059  -0.83355  1  1;
  38  115  0.98444  -0.26004  1  1;
  39  115  0.98025  -0.26446  1  1;
  40  115  1.0023  -0.25717  1  1;
  41  400  1.1192  -0.12256  1  1;
  42  115  0.98444  -0.26004  1  1;
  43  230  1.0561  -0.68744  1  1;
  44  230  1.0055  -0.23512  1  1;
  45  115  1.0023  -0.25717  1  1;
  46  138  1.0573  -0.90473  1  1;
  47  230  1.0067  -0.85005  1  1;
  48  230  0.98193  -0.81876  1  1;
  49  400  0.96726  -0.71909  1  1;
  50  230  0.975  -0.21147  1  1;
  51  400  1.0506  -0.17198  1  1;
  52  115  1.0023  -0.25717  1  1;
  53  115  0.98444  -0.26004  1  1;
  54  115  0.98444  -0.26004  1  1;
  55  230  1.0419  -0.70804  1  1;
  56  115  1.0023  -0.25717  1  1;
  57  230  1.0017  -0.2328  1  1;
  58  400  0.99372  -0.23808  1  1;
  59  400  1  0  1  1;
  60  400  1  0  1  1;
  61  230  1.0021  -0.55915  1  1;
  62  230  1  0  1  1;
  63  230  1  0  1  1;
  64  115  0.98444  -0.26004  1  1;
  65  115  1.0023  -0.25717  1  1;
  66  230  1.02  -0.24902  1  1;
  67  115  1.0023  -0.25717  1  1;
  68  230  1.07  -0.19263  1  1;
  69  400  1.0142  -0.15088  1  1;
  70  230  1.0719  -0.13773  1  1;
  71  400  1.07  -0.05981  1  1;
  72  400  1.0552  -0.050057  1  1;
  73  765  1.07  0  1  1;
  74  115  0.95525  -0.20379  1  1;
  75  230  0.97836  -0.32408  1  1;
  76  400  1.0223  -0.26866  1  1;
  77  230  1.0104  -0.46538  1  1;
  78  230  0.98578  -0.53261  1  1;
  79  400  0.97877  -0.4492  1  1;
  80  765  0.99847  -0.42871  1  1;
  81  400  1.0615  -0.13875  1  1;
  82  115  1.0023  -0.25717  1  1;
  83  115  0.98444  -0.26004  1  1;
  84  115  0.98444  -0.26004  1  1;
  85  230  0.98199  -0.50182  1  1;
  86  400  1.002  -0.44264  1  1;
  87  765  1.05  -0.39644  1  1;
  88  115  1.0023  -0.25717  1  1;
  89  115  1.0023  -0.25717  1  1;
  90  230  1.0094  -0.18727  1  1;
  91  400  1.146  -0.14257  1  1;
  92  115  0.98444  -0.26004  1  1;
  93  230  1.0163  -0.62695  1  1;
  94  115  1.05  -0.034407  1  1;
  95  400  1.07  -0.075961  1  1;
  96  230  0.95279  -0.55856  1  1;
  97  115  1.0023  -0.25717  1  1;
  98  765  1.0746  -0.10559  1  1;
  99  115  0.98025  -0.26446  1  1;
  100  115  1.0023  -0.25717  1  1;
  101  115  1.0023  -0.25717  1  1;
  102  115  0.98444  -0.26004  1  1;
  103  115  1.0023  -0.25717  1  1;
  104  115  0.98444  -0.26004  1  1;
  105  230  0.93938  -0.84702  1  1;
  106  115  1.0023  -0.25717  1  1;
  107  230  1.0023  -0.83915  1  1;
  108  230  0.98896  -0.82269  1  1;
  109  138  1.0547  -0.91261  1  1;
  110  230  1.0045  -0.84235  1  1;
  111  400  1.0189  -0.15846  1  1;
  112  115  1.0023  -0.25717  1  1;
  113  230  0.99933  -0.4575  1  1;
  114  115  1.0023  -0.25717  1  1;
  115  230  0.98842  -0.82663  1  1;
  116  230  0.99115  -0.50302  1  1;
  117  400  1.05  -0.41469  1  1;
  118  115  0.98444  -0.26004  1  1;
  119  230  1.07  -0.62878  1  1;
  120  115  0.98444  -0.26004  1  1;
  121  115  1.02  0.054618  1  1;
  122  115  0.99383  0.019735  1  1;
  123  115  1.0023  -0.25717  1  1;
  124  138  1.07  -0.91379  1  1;
  125  230  0.92904  -0.47497  1  1;
  126  230  1.07  -0.64372  1  1;
  127  115  1.0023  -0.25717  1  1;
  128  115  1.0023  -0.25717  1  1;
  129  115  1.0023  -0.25717  1  1;
  130  115  1.0023  -0.25717  1  1;
  131  230  0.94718  -0.5857  1  1;
  132  230  1.0021  -0.55915  1  1;
  133  400  1.0293  -0.26664  1  1;
  134  765  1.05  -0.2544  1  1;
  135  115  0.98444  -0.26004  1  1;
  136  230  1.0593  -0.69162  1  1;
  137  230  1.0158  -0.30624  1  1;
  138  230  0.93698  -0.47554  1  1;
  139  400  0.90882  -0.3702  1  1;
  140  115  1.0023  -0.25717  1  1;
  141  115  1.0023  -0.25717  1  1;
  142  115  1.0023  -0.25717  1  1;
  143  115  1.0023  -0.25717  1  1;
  144  230  1.0224  -0.42388  1  1;
  145  765  1.0514  -0.36841  1  1;
  146  230  1.05  -0.45942  1  1;
  147  230  1.0585  -0.6092  1  1;
  148  230  0.95955  -0.48769  1  1;
  149  115  1.0023  -0.25717  1  1;
  150  138  1.0329  -0.91001  1  1;
  151  230  0.99849  -0.84504  1  1;
  152  115  1.0023  -0.25717  1  1;
  153  115  1.0023  -0.25717  1  1;
  154  138  1.07  -0.87735  1  1;
  155  115  0.98444  -0.26004  1  1;
  156  230  1.0674  -0.65301  1  1;
  157  230  0.94798  -0.58922  1  1;
  158  115  1.0023  -0.25717  1  1;
  159  115  0.98444  -0.26004  1  1;
  160  230  1  0  1  1;
  161  230  0.9567  -0.546  1  1;
  162  400  0.94273  -0.52379  1  1;
  163  765  0.98704  -0.46859  1  1;
 ];

Line.con = [ ... 
  73  72  1500  765  60  0  1.9124  0.003  0.148  0  0  0  0  0  0  1;
  119  118  200  230  60  0  2  0.01  0.16  0  0  0  0  0  0  1;
  8  7  900  400  60  0  1.7391  0.0024  0.1  0  0  0  0  0  0  1;
  55  54  100  230  60  0  2  0.01  0.16  0  0  0  0  0  0  1;
  17  16  200  230  60  0  2  0.01  0.16  0  0  0  0  0  0  1;
  105  104  400  230  60  0  2  0.01  0.16  0  0  0  0  0  0  1;
  73  72  1500  765  60  0  1.9124  0.003  0.148  0  0  0  0  0  0  1;
  72  71  1000  400  60  0  1  0.001  0.0513  0  0  0  0  0  0  1;
  31  30  450  400  60  0  1.7391  0.002  0.1  0  0  0  0  0  0  1;
  139  138  450  400  60  0  1.7391  0.0011  0.0546  0  0  0  0  0  0  1;
  145  144  1000  765  60  0  3.3256  0.003  0.15  0  0  0  0  0  0  1;
  73  72  1500  765  60  0  1.9124  0.003  0.148  0  0  0  0  0  0  1;
  139  138  450  400  60  0  1.7391  0.0011  0.0546  0  0  0  0  0  0  1;
  86  85  450  400  60  0  1.7391  0.003  0.15  0  0  0  0  0  0  1;
  145  144  1000  765  60  0  3.3256  0.003  0.15  0  0  0  0  0  0  1;
  87  86  1500  765  60  0  1.9124  0.003  0.148  0  0  0  0  0  0  1;
  80  78  1000  765  60  0  3.3256  0.003  0.15  0  0  0  0  0  0  1;
  86  85  450  400  60  0  1.7391  0.003  0.15  0  0  0  0  0  0  1;
  87  85  1000  765  60  0  3.3256  0.003  0.15  0  0  0  0  0  0  1;
  110  109  333  230  60  0  1.6666  0.01  0.16  0  0  0  0  0  0  1;
  80  78  1000  765  60  0  3.3256  0.003  0.15  0  0  0  0  0  0  1;
  79  78  900  400  60  0  1.7391  0.001  0.0513  0  0  0  0  0  0  1;
  71  70  450  400  60  0  1.7391  0.001  0.0513  0  0  0  0  0  0  1;
  47  46  333  230  60  0  1.6666  0.01  0.16  0  0  0  0  0  0  1;
  151  150  333  230  60  0  1.6666  0.01  0.16  0  0  0  0  0  0  1;
  117  116  450  400  60  0  1.7391  0.002  0.1  0  0  0  0  0  0  1;
  163  162  1500  765  60  0  1.9124  0.003  0.148  0  0  0  0  0  0  1;
  163  161  1000  765  60  0  3.3256  0.01  0.21  0  0  0  0  0  0  1;
  134  133  1500  765  60  0  1.9124  0.003  0.149  0  0  0  0  0  0  1;
  162  161  900  400  60  0  1.7391  0.001  0.0495  0  0  0  0  0  0  1;
  156  155  100  230  60  0  2  0.01  0.16  0  0  0  0  0  0  1;
  43  42  100  230  60  0  2  0.01  0.16  0  0  0  0  0  0  1;
  13  12  200  230  60  0  2  0.01  0.16  0  0  0  0  0  0  1;
  93  92  150  230  60  0  2  0.01  0.16  0  0  0  0  0  0  1;
  3  2  250  230  60  0  2  0.01  0.16  0  0  0  0  0  0  1;
  49  48  1350  400  60  0  1.7391  0.001  0.0495  0  0  0  0  0  0  1;
  134  133  1500  765  60  0  1.9124  0.003  0.149  0  0  0  0  0  0  1;
  75  74  300  230  60  0  2  0.01  0.16  0  0  0  0  0  0  1;
  36  35  450  400  60  0  1.7391  0.01  0.18  0  0  0  0  0  0  1;
  51  50  450  400  60  0  1.7391  0.001  0.0513  0  0  0  0  0  0  1;
  35  34  333  230  60  0  1.6666  0.01  0.16  0  0  0  0  0  0  1;
  91  90  300  400  60  0  1.913043  0.01  0.18  0  0  0  0  0  0  1;
  51  50  450  400  60  0  1.7391  0.001  0.0513  0  0  0  0  0  0  1;
  163  161  1000  765  60  0  3.3256  0.01  0.21  0  0  0  0  0  0  1;
  58  57  600  400  60  0  1.7391  0.0024  0.1  0  0  0  0  0  0  1;
  25  24  300  230  60  0  2  0.0018  0.075  0  0  0  0  0  0  1;
  66  65  450  230  60  0  2  0.01  0.16  0  0  0  0  0  0  1;
  98  73  100  765  60  161  0  0.012  0.0008727  1.320457e-008  0  0  25.29  22.76  25.29  1;
  98  73  100  765  60  161  0  0.012  0.0008727  1.320457e-008  0  0  25.29  22.76  25.29  1;
  144  77  100  230  60  43.6  0  0.05  0.001294461  8.941863e-009  0  0  27.3  24.9  27.3  1;
  44  25  100  230  60  109  0  0.05  0.001294461  8.941863e-009  0  0  10.9  9.9  10.9  1;
  71  51  100  400  60  187  0  0.03380645  0.000933966  1.26263e-008  0  0  26.7  24.3  26.7  1;
  17  105  100  230  60  130  0  0.05  0.001294461  8.941863e-009  0  0  9.2  8.3  9.2  1;
  161  105  100  230  60  300  0  0.05  0.001294461  8.941863e-009  0  0  4  3.6  4  1;
  161  105  100  230  60  300  0  0.05  0.001294461  8.941863e-009  0  0  4  3.6  4  1;
  70  68  100  230  60  68  0  0.05  0.001294461  8.941863e-009  0  0  17.5  15.9  17.5  1;
  161  19  100  230  60  25  0  0.05  0.001294461  8.941863e-009  0  0  47.7  43.4  47.7  1;
  21  85  100  230  60  152  0  0.05  0.001294461  8.941863e-009  0  0  7.8  7.1  7.8  1;
  21  85  100  230  60  152  0  0.05  0.001294461  8.941863e-009  0  0  7.8  7.1  7.8  1;
  132  21  100  230  60  150  0  0.05  0.001294461  8.941863e-009  0  0  7.9  7.2  7.9  1;
  95  41  100  400  60  144.2  0  0.03380645  0.000933966  1.26263e-008  0  0  34.7  31.5  34.7  1;
  19  78  100  230  60  134  0  0.05  0.001294461  8.941863e-009  0  0  8.9  8.1  8.9  1;
  136  43  100  230  60  80  0  0.05  0.001294461  8.941863e-009  0  0  14.9  13.6  14.9  1;
  18  48  100  230  60  50  0  0.05  0.001294461  8.941863e-009  0  0  23.8  21.7  23.8  1;
  105  48  100  230  60  67  0  0.05  0.001294461  8.941863e-009  0  0  17.8  16.2  17.8  1;
  105  18  100  230  60  44  0  0.05  0.001294461  8.941863e-009  0  0  27.1  24.6  27.1  1;
  136  43  100  230  60  80  0  0.05  0.001294461  8.941863e-009  0  0  14.9  13.6  14.9  1;
  156  126  100  230  60  13  0  0.05  0.001294461  8.941863e-009  0  0  91.7  83.4  91.7  1;
  55  156  100  230  60  133  0  0.05  0.001294461  8.941863e-009  0  0  9  8.2  9  1;
  17  119  100  230  60  95.4  0  0.05  0.001294461  8.941863e-009  0  0  12.5  11.4  12.5  1;
  75  116  532  230  60  224  0  0.05  0.001294461  8.941863e-009  0  0  5.3  4.8  5.3  1;
  41  91  100  400  60  153.9  0  0.03380645  0.000933966  1.26263e-008  0  0  32.5  29.5  32.5  1;
  13  93  100  230  60  80  0  0.05  0.001294461  8.941863e-009  0  0  14.9  13.6  14.9  1;
  75  116  532  230  60  224  0  0.05  0.001294461  8.941863e-009  0  0  5.3  4.8  5.3  1;
  3  161  100  230  60  80  0  0.05  0.001294461  8.941863e-009  0  0  14.9  13.6  14.9  1;
  49  36  100  400  60  38  0  0.03380645  0.000933966  1.26263e-008  0  0  131.5  119.6  131.5  1;
  46  124  100  138  60  6.2  0  0.125  0.000994719  7.460394e-009  0  0  90.1  81.9  90.1  1;
  115  35  100  230  60  9.8  0  0.05  0.001294461  8.941863e-009  0  0  121.7  110.6  121.7  1;
  48  108  100  230  60  6  0  0.05  0.001294461  8.941863e-009  0  0  198.7  180.7  198.7  1;
  48  107  100  230  60  16.1  0  0.05  0.001294461  8.941863e-009  0  0  74.1  67.3  74.1  1;
  46  124  100  138  60  6.2  0  0.125  0.000994719  7.460394e-009  0  0  90.1  81.9  90.1  1;
  115  108  100  230  60  9  0  0.19253  0.00021157  4.16e-007  0  0  810.6  736.9  810.6  1;
  58  111  100  400  60  169  0  0.03380645  0.000933966  1.26263e-008  0  0  29.6  26.9  29.6  1;
  109  124  100  138  60  4.3  0  0.125  0.000994719  7.460394e-009  0  0  129.9  118.1  129.9  1;
  35  151  100  230  60  12  0  0.05  0.001294461  8.941863e-009  0  0  99.4  90.3  99.4  1;
  34  150  100  138  60  12  0  0.125  0.000994719  7.460394e-009  0  0  46.6  42.3  46.6  1;
  110  107  100  230  60  9  0  0.023  0.00036046  3.57e-007  0  0  475.8  432.5  475.8  1;
  35  47  100  230  60  19  0  0.05  0.001294461  8.941863e-009  0  0  62.8  57.1  62.8  1;
  46  154  100  138  60  15.4  0  0.125  0.000994719  7.460394e-009  0  0  36.3  33  36.3  1;
  46  154  100  138  60  15.4  0  0.125  0.000994719  7.460394e-009  0  0  36.3  33  36.3  1;
  150  124  100  138  60  10.7  0  0.125  0.000994719  7.460394e-009  0  0  52.2  47.5  52.2  1;
  37  35  100  230  60  124  0  0.05  0.001294461  8.941863e-009  0  0  9.6  8.7  9.6  1;
  150  46  100  138  60  12.2  0  0.125  0.000994719  7.460394e-009  0  0  45.8  41.6  45.8  1;
  144  113  100  230  60  20.2  0  0.05  0.001294461  8.941863e-009  0  0  59  53.7  59  1;
  87  80  100  765  60  65  0  0.012  0.0008727  1.320457e-008  0  0  25.29  22.76  25.29  1;
  119  13  100  230  60  59  0  0.05  0.001294461  8.941863e-009  0  0  20.2  18.4  20.2  1;
  74  122  100  115  60  82  0  0.125  0.000994719  7.460394e-009  0  0  6.8  6.2  6.8  1;
  93  3  100  230  60  111  0  0.05  0.001294461  8.941863e-009  0  0  10.7  9.8  10.7  1;
  72  23  100  400  60  62.1  0  0.03380645  0.000933966  1.26263e-008  0  0  80.5  73.2  80.5  1;
  74  33  100  115  60  12  0  0.125  0.000994719  7.460394e-009  0  0  45.8  41.6  45.8  1;
  51  8  100  400  60  152  0  0.03380645  0.000933966  1.26263e-008  0  0  32.9  29.9  32.9  1;
  76  8  100  400  60  40  0  0.03380645  0.000933966  1.26263e-008  0  0  125  114  125  1;
  90  137  100  230  60  197.3  0  0.05  0.001294461  8.941863e-009  0  0  6  5.5  6  1;
  137  14  100  230  60  206  0  0.05  0.001294461  8.941863e-009  0  0  5.8  5.3  5.8  1;
  69  72  100  400  60  68  0  0.03380645  0.000933966  1.26263e-008  0  0  73.5  66.8  73.5  1;
  122  121  100  115  60  10  0  0.125  0.000994719  7.460394e-009  0  0  45.8  41.6  45.8  1;
  66  25  100  230  60  140  0  0.05  0.001294461  8.941863e-009  0  0  8.5  7.7  8.5  1;
  68  29  100  230  60  64  0  0.05  0.001294461  8.941863e-009  0  0  18.6  16.9  18.6  1;
  122  121  100  115  60  10  0  0.125  0.000994719  7.460394e-009  0  0  45.8  41.6  45.8  1;
  38  65  100  115  60  27  0  0.125  0.000994719  7.460394e-009  0  0  20.7  18.8  20.7  1;
  44  25  100  230  60  109  0  0.05  0.001294461  8.941863e-009  0  0  10.9  9.9  10.9  1;
  94  28  100  115  60  29  0  0.023  0.00036046  3.57e-007  0  0  147  134  147  1;
  69  72  100  400  60  68  0  0.03380645  0.000933966  1.26263e-008  0  0  73.5  66.8  73.5  1;
  30  138  100  230  60  7  0  0.05  0.001294461  8.941863e-009  0  0  170  155  170  1;
  13  3  100  230  60  160  0  0.05  0.001294461  8.941863e-009  0  0  7.5  6.8  7.5  1;
  71  81  100  400  60  132  0  0.03380645  0.000933966  1.26263e-008  0  0  37.9  34.4  37.9  1;
  43  156  100  230  60  87  0  0.05  0.001294461  8.941863e-009  0  0  13.7  12.5  13.7  1;
  147  13  100  230  60  2  0  0.05  0.001294461  8.941863e-009  0  0  596  542  596  1;
  38  65  100  115  60  27  0  0.125  0.000994719  7.460394e-009  0  0  20.7  18.8  20.7  1;
  78  116  100  230  60  64  0  0.05  0.001294461  8.941863e-009  0  0  18.6  16.9  18.6  1;
  138  113  100  230  60  30  0  0.05  0.001294461  8.941863e-009  0  0  39.7  36.1  39.7  1;
  39  38  100  115  60  7  0  0.125  0.000994719  7.460394e-009  0  0  80  72.5  80  1;
  99  39  100  115  60  7  0  0.125  0.000994719  7.460394e-009  0  0  80  72.5  80  1;
  99  38  100  115  60  7  0  0.125  0.000994719  7.460394e-009  0  0  80  72.5  80  1;
  24  22  100  115  60  7  0  0.125  0.000994719  7.460394e-009  0  0  80  72.5  80  1;
  22  38  100  115  60  68  0  0.125  0.000994719  7.460394e-009  0  0  8.2  7.5  8.2  1;
  81  51  100  400  60  56  0  0.03380645  0.000933966  1.26263e-008  0  0  89.3  81.1  89.3  1;
  24  38  100  115  60  71  0  0.125  0.000994719  7.460394e-009  0  0  8.2  7.5  8.2  1;
  28  24  100  115  60  51  0  0.125  0.000994719  7.460394e-009  0  0  11  10  11  1;
  28  24  100  115  60  51  0  0.125  0.000994719  7.460394e-009  0  0  11  10  11  1;
  74  122  100  115  60  82  0  0.125  0.000994719  7.460394e-009  0  0  6.8  6.2  6.8  1;
  132  21  100  230  60  150  0  0.05  0.001294461  8.941863e-009  0  0  7.9  7.2  7.9  1;
  156  160  100  230  60  13  0  0.05  0.001294461  8.941863e-009  0  0  91.7  83.4  91.7  1;
  18  63  100  230  60  44  0  0.05  0.001294461  8.941863e-009  0  0  27.1  24.6  27.1  1;
  55  156  100  230  60  133  0  0.05  0.001294461  8.941863e-009  0  0  9  8.2  9  1;
  61  21  100  230  60  10  0  0.05  0.001294461  8.941863e-009  0  0  119  108  119  1;
  138  62  100  230  60  10  0  0.05  0.001294461  8.941863e-009  0  0  119  108  119  1;
  71  51  100  400  60  187  0  0.03380645  0.000933966  1.26263e-008  0  0  26.7  24.3  26.7  1;
  59  76  100  400  60  10  0  0.03380645  0.000933966  1.26263e-008  0  0  500  454  500  1;
  60  51  100  400  60  10  0  0.03380645  0.000933966  1.26263e-008  0  0  500  454  500  1;
  2  1  100  115  60  29.67  0  0.125  0.000994719  7.460394e-009  0  0  0  0  0  1;
  2  1  100  115  60  29.67  0  0.125  0.000994719  7.460394e-009  0  0  0  0  0  1;
  42  82  100  115  60  14.35  0  0.125  0.000994719  7.460394e-009  0  0  0  0  0  1;
  158  159  100  115  60  11.47  0  0.125  0.000994719  7.460394e-009  0  0  0  0  0  1;
  70  68  100  230  60  68  0  0.05  0.001294461  8.941863e-009  0  0  17.5  15.9  17.5  1;
  153  2  100  115  60  34.72  0  0.125  0.000994719  7.460394e-009  0  0  0  0  0  1;
  45  153  100  115  60  24  0  0.125  0.000994719  7.460394e-009  0  0  0  0  0  1;
  5  2  100  115  60  6.33  0  0.125  0.000994719  7.460394e-009  0  0  0  0  0  1;
  64  1  100  115  60  111.46  0  0.125  0.000994719  7.460394e-009  0  0  0  0  0  1;
  5  64  100  115  60  82.89  0  0.125  0.000994719  7.460394e-009  0  0  0  0  0  1;
  92  64  100  115  60  6.6  0  0.125  0.000994719  7.460394e-009  0  0  0  0  0  1;
  92  141  100  115  60  26.56  0  0.125  0.000994719  7.460394e-009  0  0  0  0  0  1;
  114  64  100  115  60  51.36  0  0.125  0.000994719  7.460394e-009  0  0  0  0  0  1;
  9  100  100  115  60  17.67  0  0.125  0.000994719  7.460394e-009  0  0  0  0  0  1;
  141  9  100  115  60  24.8  0  0.125  0.000994719  7.460394e-009  0  0  0  0  0  1;
  98  73  100  765  60  161  0  0.012  0.0008727  1.320457e-008  0  0  25.29  22.76  25.29  1;
  133  139  100  400  60  164  0  0.03380645  0.000933966  1.26263e-008  0  0  30.5  27.7  30.5  1;
  12  9  100  115  60  7.55  0  0.125  0.000994719  7.460394e-009  0  0  0  0  0  1;
  12  10  100  115  60  7.15  0  0.125  0.000994719  7.460394e-009  0  0  0  0  0  1;
  10  11  100  115  60  7.93  0  0.125  0.000994719  7.460394e-009  0  0  0  0  0  1;
  11  9  100  115  60  12.43  0  0.125  0.000994719  7.460394e-009  0  0  0  0  0  1;
  9  52  100  115  60  29.66  0  0.125  0.000994719  7.460394e-009  0  0  0  0  0  1;
  52  88  100  115  60  57.04  0  0.125  0.000994719  7.460394e-009  0  0  0  0  0  1;
  9  118  100  115  60  35.54  0  0.125  0.000994719  7.460394e-009  0  0  0  0  0  1;
  12  142  100  115  60  62.09  0  0.125  0.000994719  7.460394e-009  0  0  0  0  0  1;
  143  67  100  115  60  147.84  0  0.125  0.000994719  7.460394e-009  0  0  0  0  0  1;
  89  67  100  115  60  96.28  0  0.125  0.000994719  7.460394e-009  0  0  0  0  0  1;
  30  138  100  230  60  7  0  0.05  0.001294461  8.941863e-009  0  0  170  155  170  1;
  155  143  100  115  60  78.19  0  0.125  0.000994719  7.460394e-009  0  0  0  0  0  1;
  155  89  100  115  60  42.63  0  0.125  0.000994719  7.460394e-009  0  0  0  0  0  1;
  118  106  100  115  60  30.96  0  0.125  0.000994719  7.460394e-009  0  0  0  0  0  1;
  118  102  100  115  60  71.84  0  0.125  0.000994719  7.460394e-009  0  0  0  0  0  1;
  106  102  100  115  60  48.68  0  0.125  0.000994719  7.460394e-009  0  0  0  0  0  1;
  102  101  100  115  60  30.16  0  0.125  0.000994719  7.460394e-009  0  0  0  0  0  1;
  129  42  100  115  60  22.69  0  0.125  0.000994719  7.460394e-009  0  0  0  0  0  1;
  40  149  100  115  60  78.79  0  0.125  0.000994719  7.460394e-009  0  0  0  0  0  1;
  129  84  100  115  60  48.91  0  0.125  0.000994719  7.460394e-009  0  0  0  0  0  1;
  120  84  100  115  60  25.79  0  0.125  0.000994719  7.460394e-009  0  0  0  0  0  1;
  51  133  100  400  60  210  0  0.03380645  0.000933966  1.26263e-008  0  0  23.8  21.6  23.8  1;
  120  84  100  115  60  25.79  0  0.125  0.000994719  7.460394e-009  0  0  0  0  0  1;
  42  84  100  115  60  21.21  0  0.125  0.000994719  7.460394e-009  0  0  0  0  0  1;
  149  84  100  115  60  10  0  0.125  0.000994719  7.460394e-009  0  0  0  0  0  1;
  149  84  100  115  60  36.26  0  0.125  0.000994719  7.460394e-009  0  0  0  0  0  1;
  149  53  100  115  60  33.56  0  0.125  0.000994719  7.460394e-009  0  0  0  0  0  1;
  102  40  100  115  60  39.38  0  0.125  0.000994719  7.460394e-009  0  0  0  0  0  1;
  102  53  100  115  60  70.12  0  0.125  0.000994719  7.460394e-009  0  0  0  0  0  1;
  42  130  100  115  60  10  0  0.125  0.000994719  7.460394e-009  0  0  0  0  0  1;
  42  112  100  115  60  37.45  0  0.125  0.000994719  7.460394e-009  0  0  0  0  0  1;
  130  120  100  115  60  38.92  0  0.125  0.000994719  7.460394e-009  0  0  0  0  0  1;
  133  76  100  400  60  165  0  0.03380645  0.000933966  1.26263e-008  0  0  30.3  27.5  30.3  1;
  112  120  100  115  60  24.14  0  0.125  0.000994719  7.460394e-009  0  0  0  0  0  1;
  42  127  100  115  60  40.38  0  0.125  0.000994719  7.460394e-009  0  0  0  0  0  1;
  127  83  100  115  60  56.35  0  0.125  0.000994719  7.460394e-009  0  0  0  0  0  1;
  83  120  100  115  60  10.81  0  0.125  0.000994719  7.460394e-009  0  0  0  0  0  1;
  83  120  100  115  60  10.81  0  0.125  0.000994719  7.460394e-009  0  0  0  0  0  1;
  83  53  100  115  60  89.17  0  0.125  0.000994719  7.460394e-009  0  0  0  0  0  1;
  53  54  100  115  60  10.71  0  0.125  0.000994719  7.460394e-009  0  0  0  0  0  1;
  54  128  100  115  60  44.9  0  0.125  0.000994719  7.460394e-009  0  0  0  0  0  1;
  16  20  100  115  60  25.69  0  0.125  0.000994719  7.460394e-009  0  0  0  0  0  1;
  152  159  100  115  60  24.55  0  0.125  0.000994719  7.460394e-009  0  0  0  0  0  1;
  7  6  100  230  60  8  0  0.05  0.001294461  8.941863e-009  0  0  149  136  149  1;
  159  140  100  115  60  35.97  0  0.125  0.000994719  7.460394e-009  0  0  0  0  0  1;
  135  159  100  115  60  75.21  0  0.125  0.000994719  7.460394e-009  0  0  0  0  0  1;
  135  140  100  115  60  39.24  0  0.125  0.000994719  7.460394e-009  0  0  0  0  0  1;
  103  27  100  115  60  19.52  0  0.125  0.000994719  7.460394e-009  0  0  0  0  0  1;
  50  29  100  230  60  126  0  0.05  0.001294461  8.941863e-009  0  0  9.5  8.6  9.5  1;
  159  103  100  115  60  39.48  0  0.125  0.000994719  7.460394e-009  0  0  0  0  0  1;
  97  135  100  115  60  28.27  0  0.125  0.000994719  7.460394e-009  0  0  0  0  0  1;
  123  97  100  115  60  51.12  0  0.125  0.000994719  7.460394e-009  0  0  0  0  0  1;
  118  159  100  115  60  52.66  0  0.125  0.000994719  7.460394e-009  0  0  0  0  0  1;
  118  159  100  115  60  52.66  0  0.125  0.000994719  7.460394e-009  0  0  0  0  0  1;
  159  16  100  115  60  41.57  0  0.125  0.000994719  7.460394e-009  0  0  0  0  0  1;
  158  16  100  115  60  34.65  0  0.125  0.000994719  7.460394e-009  0  0  0  0  0  1;
  144  113  100  230  60  20.2  0  0.05  0.001294461  8.941863e-009  0  0  59  53.7  59  1;
  152  16  100  115  60  56.52  0  0.125  0.000994719  7.460394e-009  0  0  0  0  0  1;
  104  135  100  115  60  62.51  0  0.125  0.000994719  7.460394e-009  0  0  0  0  0  1;
  51  133  100  400  60  210  0  0.03380645  0.000933966  1.26263e-008  0  0  23.8  21.6  23.8  1;
  82  42  100  115  60  14.35  0  0.125  0.000994719  7.460394e-009  0  0  0  0  0  1;
  67  56  100  115  60  12.81  0  0.125  0.000994719  7.460394e-009  0  0  0  0  0  1;
  50  6  100  230  60  142  0  0.05  0.001294461  8.941863e-009  0  0  8.4  7.6  8.4  1;
  67  56  100  115  60  12.81  0  0.125  0.000994719  7.460394e-009  0  0  0  0  0  1;
  114  100  100  115  60  10  0  0.125  0.000994719  7.460394e-009  0  0  0  0  0  1;
  12  9  100  115  60  7.55  0  0.125  0.000994719  7.460394e-009  0  0  0  0  0  1;
  9  118  100  115  60  35.54  0  0.125  0.000994719  7.460394e-009  0  0  0  0  0  1;
  7  66  100  230  60  21  0  0.05  0.001294461  8.941863e-009  0  0  56.8  51.5  56.8  1;
  134  98  100  765  60  225  0  0.012  0.0008727  1.320457e-008  0  0  25.29  22.76  25.29  1;
  57  44  100  230  60  31  0  0.05  0.001294461  8.941863e-009  0  0  38.5  35  38.5  1;
  50  6  100  230  60  142  0  0.05  0.001294461  8.941863e-009  0  0  8.4  7.6  8.4  1;
  4  138  100  230  60  100  0  0.05  0.001294461  8.941863e-009  0  0  11.9  10.8  11.9  1;
  125  138  100  230  60  64  0  0.05  0.001294461  8.941863e-009  0  0  18.6  16.9  18.6  1;
  50  57  100  230  60  148  0  0.05  0.001294461  8.941863e-009  0  0  8.1  7.3  8.1  1;
  133  139  100  400  60  164  0  0.03380645  0.000933966  1.26263e-008  0  0  30.5  27.7  30.5  1;
  50  29  100  230  60  126  0  0.05  0.001294461  8.941863e-009  0  0  9.5  8.6  9.5  1;
  125  6  100  230  60  192  0  0.05  0.001294461  8.941863e-009  0  0  6.2  5.6  6.2  1;
  31  139  100  400  60  10  0  0.03380645  0.000933966  1.26263e-008  0  0  500  454  500  1;
  145  134  100  765  60  182  0  0.012  0.0008727  1.320457e-008  0  0  25.29  22.76  25.29  1;
  134  98  100  765  60  225  0  0.012  0.0008727  1.320457e-008  0  0  25.29  22.76  25.29  1;
  145  87  100  765  60  90  0  0.012  0.0008727  1.320457e-008  0  0  25.29  22.76  25.29  1;
  80  163  100  765  60  123  0  0.012  0.0008727  1.320457e-008  0  0  25.29  22.76  25.29  1;
  80  163  100  765  60  123  0  0.012  0.0008727  1.320457e-008  0  0  25.29  22.76  25.29  1;
  80  134  100  765  60  270  0  0.012  0.0008727  1.320457e-008  0  0  25.29  22.76  25.29  1;
  87  134  100  765  60  211  0  0.012  0.0008727  1.320457e-008  0  0  25.29  22.76  25.29  1;
  146  15  100  230  60  18.4  0  0.05  0.001294461  8.941863e-009  0  0  64.8  58.9  64.8  1;
  144  77  100  230  60  43.6  0  0.05  0.001294461  8.941863e-009  0  0  27.3  24.9  27.3  1;
  69  95  100  400  60  33.3  0  0.03380645  0.000933966  1.26263e-008  0  0  150  137  150  1;
  77  113  100  230  60  10.4  0  0.05  0.001294461  8.941863e-009  0  0  114.7  104.2  114.7  1;
  49  36  100  400  60  38  0  0.03380645  0.000933966  1.26263e-008  0  0  131.5  119.6  131.5  1;
  134  98  100  765  60  225  0  0.012  0.0008727  1.320457e-008  0  0  25.29  22.76  25.29  1;
  138  32  100  230  60  38  0  0.05  0.001294461  8.941863e-009  0  0  31.4  28.5  31.4  1;
  115  35  100  230  60  9.8  0  0.05  0.001294461  8.941863e-009  0  0  121.7  110.6  121.7  1;
  77  146  100  230  60  16.8  0  0.05  0.001294461  8.941863e-009  0  0  71  64.5  71  1;
  146  32  100  230  60  31.5  0  0.05  0.001294461  8.941863e-009  0  0  37.9  34.4  37.9  1;
  15  32  100  230  60  13.1  0  0.05  0.001294461  8.941863e-009  0  0  91  82.7  91  1;
  7  66  100  230  60  21  0  0.05  0.001294461  8.941863e-009  0  0  56.8  51.5  56.8  1;
  68  29  100  230  60  64  0  0.05  0.001294461  8.941863e-009  0  0  18.6  16.9  18.6  1;
  115  108  100  230  60  9  0  0.19253  0.00021157  4.16e-007  0  0  810.6  736.9  810.6  1;
  48  108  100  230  60  6  0  0.05  0.001294461  8.941863e-009  0  0  198.7  180.7  198.7  1;
  162  49  100  400  60  314  0  0.03380645  0.000861826  1.26263e-008  0  0  15.9  14.5  15.9  1;
  23  95  100  400  60  27.2  0  0.03380645  0.000933966  1.26263e-008  0  0  184  167  184  1;
  162  49  100  400  60  314  0  0.03380645  0.000861826  1.26263e-008  0  0  15.9  14.5  15.9  1;
  156  126  100  230  60  13  0  0.05  0.001294461  8.941863e-009  0  0  91.7  83.4  91.7  1;
  55  17  100  230  60  120  0  0.05  0.001294461  8.941863e-009  0  0  10  9  10  1;
  30  148  100  230  60  44  0  0.05  0.001294461  8.941863e-009  0  0  27.1  24.6  27.1  1;
  79  86  100  400  60  68  0  0.03380645  0.000933966  1.26263e-008  0  0  73.5  66.8  73.5  1;
  78  4  100  230  60  81  0  0.05  0.001294461  8.941863e-009  0  0  14.7  13.4  14.7  1;
  30  85  100  230  60  94  0  0.05  0.001294461  8.941863e-009  0  0  12.7  11.5  12.7  1;
  148  85  100  230  60  50  0  0.05  0.001294461  8.941863e-009  0  0  23.8  21.7  23.8  1;
  119  13  100  230  60  59  0  0.05  0.001294461  8.941863e-009  0  0  20.2  18.4  20.2  1;
  43  156  100  230  60  87  0  0.05  0.001294461  8.941863e-009  0  0  13.7  12.5  13.7  1;
  71  111  100  400  60  84.2  0  0.03380645  0.000933966  1.26263e-008  0  0  59.4  54  59.4  1;
  79  86  100  400  60  68  0  0.03380645  0.000933966  1.26263e-008  0  0  73.5  66.8  73.5  1;
  138  6  100  230  60  256  0  0.05  0.001294461  8.941863e-009  0  0  4.7  4.2  4.7  1;
  7  6  100  230  60  8  0  0.05  0.001294461  8.941863e-009  0  0  149  136  149  1;
  58  111  100  400  60  169  0  0.03380645  0.000933966  1.26263e-008  0  0  29.6  26.9  29.6  1;
  50  57  100  230  60  148  0  0.05  0.001294461  8.941863e-009  0  0  8.1  7.3  8.1  1;
  66  25  100  230  60  140  0  0.05  0.001294461  8.941863e-009  0  0  8.5  7.7  8.5  1;
  85  4  100  230  60  31  0  0.05  0.001294461  8.941863e-009  0  0  38.5  35  38.5  1;
  78  85  100  230  60  65  0  0.05  0.001294461  8.941863e-009  0  0  18.3  16.7  18.3  1;
  85  96  100  230  60  30.3  0  0.05  0.001294461  8.941863e-009  0  0  39.4  35.8  39.4  1;
  78  4  100  230  60  81  0  0.05  0.001294461  8.941863e-009  0  0  14.7  13.4  14.7  1;
  69  111  100  400  60  22.5  0  0.03380645  0.000933966  1.26263e-008  0  0  222  202  222  1;
  85  4  100  230  60  31  0  0.05  0.001294461  8.941863e-009  0  0  38.5  35  38.5  1;
  131  96  100  230  60  60.9  0  0.05  0.001294461  8.941863e-009  0  0  19.6  17.8  19.6  1;
  26  96  100  230  60  17.9  0  0.05  0.001294461  8.941863e-009  0  0  66.6  60.6  66.6  1;
  131  26  100  230  60  43  0  0.05  0.001294461  8.941863e-009  0  0  27.7  25.2  27.7  1;
  3  161  100  230  60  80  0  0.05  0.001294461  8.941863e-009  0  0  14.9  13.6  14.9  1;
  79  117  100  400  60  63  0  0.03380645  0.000933966  1.26263e-008  0  0  79.3  72.1  79.3  1;
  78  157  100  230  60  20  0  0.05  0.001294461  8.941863e-009  0  0  59.6  54.2  59.6  1;
  78  131  100  230  60  26.1  0  0.05  0.001294461  8.941863e-009  0  0  45.7  41.5  45.7  1;
  78  157  100  230  60  20  0  0.05  0.001294461  8.941863e-009  0  0  59.6  54.2  59.6  1;
  78  85  100  230  60  65  0  0.05  0.001294461  8.941863e-009  0  0  18.3  16.7  18.3  1;
  69  95  100  400  60  33.3  0  0.03380645  0.000933966  1.26263e-008  0  0  150  137  150  1;
  79  117  100  400  60  63  0  0.03380645  0.000933966  1.26263e-008  0  0  79.3  72.1  79.3  1;
  162  117  100  400  60  152  0  0.03380645  0.000933966  1.26263e-008  0  0  32.9  29.9  32.9  1;
  78  116  100  230  60  64  0  0.05  0.001294461  8.941863e-009  0  0  18.6  16.9  18.6  1;
  78  116  100  230  60  64  0  0.05  0.001294461  8.941863e-009  0  0  18.6  16.9  18.6  1;
  78  131  100  230  60  26.1  0  0.05  0.001294461  8.941863e-009  0  0  45.7  41.5  45.7  1;
  162  79  100  400  60  164  0  0.03380645  0.000933966  1.26263e-008  0  0  30.5  27.7  30.5  1;
  161  19  100  230  60  25  0  0.05  0.001294461  8.941863e-009  0  0  47.7  43.4  47.7  1;
  162  49  100  400  60  314  0  0.03380645  0.000861826  1.26263e-008  0  0  15.9  14.5  15.9  1;
  85  96  100  230  60  30.3  0  0.05  0.001294461  8.941863e-009  0  0  39.4  35.8  39.4  1;
  57  44  100  230  60  31  0  0.05  0.001294461  8.941863e-009  0  0  38.5  35  38.5  1;
 ];

Shunt.con = [ ... 
  159  100  115  60  0  0.12  1;
  127  100  115  60  0  0.12  1;
  142  100  115  60  0  0.12  1;
  52  100  115  60  0  0.12  1;
  20  100  115  60  0  0.03  1;
  129  100  115  60  0  0.09  1;
  88  100  115  60  0  0.015  1;
  10  100  115  60  0  0.06  1;
  64  100  115  60  0  0.06  1;
  1  100  115  60  0  0.24  1;
  158  100  115  60  0  0.12  1;
  105  100  230  60  0  1.08  1;
  33  100  115  60  0  0.000907372  0;
  43  100  230  60  0  0.8  1;
  53  100  115  60  0  0.12  1;
  102  100  115  60  0  0.12  1;
  101  100  115  60  0  0.12  1;
 ];

SW.con = [ ... 
  73  100  765  1.04  0  1.5  -1.5  1.1  0.9  30  1  1  1;
 ];

PV.con = [ ... 
  94  100  115  4.4039  1.04  0.8  -0.2  1.1  0.9  1  1;
  121  100  115  2.82205  1.04  0.8  -0.2  1.1  0.9  1  1;
  154  100  138  10.4361  1.04  0.8  -0.2  1.1  0.9  1  1;
  23  100  400  13.1628  1.03  0.8  -0.2  1.1  0.9  1  1;
  68  100  230  2.9239  1.03  0.8  -0.2  1.1  0.9  1  1;
  131  100  230  4.901  1.04  0.8  -0.2  1.1  0.9  1  1;
  95  100  400  14.6386  1.03  0.8  -0.2  1.1  0.9  1  1;
  62  100  230  5.04  1.02  0.8  -0.2  1.1  0.9  1  1;
  60  100  400  2.1  1.02  0.8  -0.2  1.1  0.9  1  1;
  59  100  400  2.1  1.02  0.8  -0.2  1.1  0.9  1  1;
  61  100  230  1.05  1.02  0.8  -0.2  1.1  0.9  1  1;
  160  100  230  1.4985  1.02  0.8  -0.2  1.1  0.9  1  1;
  146  100  230  11.102  1.04  0.8  -0.2  1.1  0.9  1  1;
  63  100  230  7.77  1.04  0.8  -0.2  1.1  0.9  1  1;
  114  100  115  0.4795  1.02  0.8  -0.2  1.1  0.9  1  1;
  147  100  230  1.1667  1.02  0.8  -0.2  1.1  0.9  1  1;
  104  100  115  0.42029  0.9833  0.8  -0.2  1.1  0.9  1  1;
  9  100  115  0.07  1.02  0.8  -0.2  1.1  0.9  1  1;
  118  100  115  1.4305  1.04  0.8  -0.2  1.1  0.9  1  1;
  128  100  115  0.6832  1.04  0.8  -0.2  1.1  0.9  1  1;
  120  100  115  1.8298  1.02  0.8  -0.2  1.1  0.9  1  1;
  1  100  115  0.41668  0.9513  0.8  -0.2  1.1  0.9  1  1;
  100  100  115  0.1499  1.02  0.8  -0.2  1.1  0.9  1  1;
  119  100  230  1.4305  1.04  0.8  -0.2  1.1  0.9  1  1;
  135  100  115  0.28  1.02  0.8  -0.2  1.1  0.9  1  1;
  33  100  115  2.82205  1.04  0.8  -0.2  1.1  0.9  1  1;
  126  100  230  1.7982  1.02  0.8  -0.2  1.1  0.9  1  1;
  124  100  138  4.62  1.04  0.8  -0.2  1.1  0.9  1  1;
  66  100  230  7.4839  1.02  0.8  -0.2  1.1  0.9  1  1;
  117  100  400  11.7691  1.04  0.8  -0.2  1.1  0.9  1  1;
  70  100  230  3.2368  1.04  0.8  -0.2  1.1  0.9  1  1;
  71  100  400  13.5944  1.04  0.8  -0.2  1.1  0.9  1  1;
  134  100  765  0  1.04  2.8  -3  1.1  0.9  1  1;
  87  100  765  0  1.04  2.8  -3  1.1  0.9  1  1;
 ];

PQ.con = [ ... 
  14  100  230  0.691569  0.3347408  1.2  0.8  0  1;
  2  100  115  0.3449696  0.1851261  1.2  0.8  0  1;
  106  100  115  0.6003248  0.2907538  1.2  0.8  0  1;
  101  100  115  0.6003248  0.2907538  1.2  0.8  0  1;
  102  100  115  0.6003248  0.2907538  1.2  0.8  0  1;
  82  100  115  0.1165347  0.08269343  1.2  0.8  0  1;
  112  100  115  0.1165347  0.08269343  1.2  0.8  0  1;
  83  100  115  0.1165347  0.08269343  1.2  0.8  0  1;
  130  100  115  0.1165347  0.08269343  1.2  0.8  0  1;
  129  100  115  0.1165347  0.08269343  1.2  0.8  0  1;
  120  100  115  0.1165347  0.08269343  1.2  0.8  0  1;
  127  100  115  0.1165347  0.08269343  1.2  0.8  0  1;
  92  100  115  0.132868  0.08183642  1.2  0.8  0  1;
  143  100  115  0.06214471  0.04411031  1.2  0.8  0  1;
  89  100  115  0.06214471  0.04411031  1.2  0.8  0  1;
  56  100  115  0.06214471  0.04411031  1.2  0.8  0  1;
  67  100  115  0.06214471  0.04411031  1.2  0.8  0  1;
  142  100  115  0.0181869  0.01526045  1.2  0.8  0  1;
  88  100  115  0.0181869  0.01526045  1.2  0.8  0  1;
  52  100  115  0.0181869  0.01526045  1.2  0.8  0  1;
  12  100  115  0.0181869  0.01526045  1.2  0.8  0  1;
  9  100  115  0.0181869  0.01526045  1.2  0.8  0  1;
  10  100  115  0.0181869  0.01526045  1.2  0.8  0  1;
  58  100  400  4.856208  2.351978  1.2  0.8  0  1;
  11  100  115  0.0181869  0.01526045  1.2  0.8  0  1;
  153  100  115  0.3449696  0.1851261  1.2  0.8  0  1;
  64  100  115  0.132868  0.08183642  1.2  0.8  0  1;
  45  100  115  0.3449696  0.1851261  1.2  0.8  0  1;
  5  100  115  0.3449696  0.1851261  1.2  0.8  0  1;
  1  100  115  0.3449696  0.1851261  1.2  0.8  0  1;
  6  100  230  2.738077  1.326097  1.2  0.8  0  1;
  125  100  230  1.095252  0.5304173  1.2  0.8  0  1;
  42  100  115  0.1165347  0.08269343  1.2  0.8  0  1;
  19  100  230  4.467643  2.447082  1.2  0.8  0  1;
  157  100  230  4.216426  2.184286  1.2  0.8  0  1;
  78  100  230  4.033724  2.040075  1.2  0.8  0  1;
  131  100  230  12.33834  5.975692  1.2  0.8  0  1;
  163  100  765  0.0488  19.5074  1.2  0.8  0  1;
  4  100  230  4.756386  2.474745  1.2  0.8  0  1;
  26  100  230  1.489393  0.7213762  1.2  0.8  0  1;
  96  100  230  2.234143  1.082064  1.2  0.8  0  1;
  16  100  115  0.04932601  0.02521367  1.2  0.8  0  1;
  21  100  230  0.3312026  0.1819523  1.2  0.8  0  1;
  132  100  230  0.1656549  0.09092256  1.2  0.8  0  1;
  30  100  230  1.125488  0.5790952  1.2  0.8  0  1;
  138  100  230  3.97947  2.0152  1.2  0.8  0  1;
  133  100  400  0.5623689  0.3331325  1.2  0.8  0  1;
  68  100  230  3.236757  1.567664  1.2  0.8  0  1;
  141  100  115  0.132868  0.08183642  1.2  0.8  0  1;
  41  100  400  0.9710915  0.4702669  1.2  0.8  0  1;
  111  100  400  3.236757  1.567664  1.2  0.8  0  1;
  29  100  230  2.427568  1.175775  1.2  0.8  0  1;
  76  100  400  2.010589  1.403403  1.2  0.8  0  1;
  50  100  230  0.3048265  0.2202299  1.2  0.8  0  1;
  44  100  230  0.3048265  0.2202299  1.2  0.8  0  1;
  69  100  400  39.24552  19.06865  1.2  0.8  0  1;
  34  100  138  1.737071  0.8413553  1.2  0.8  0  1;
  103  100  115  0.04932601  0.02521367  1.2  0.8  0  1;
  77  100  230  3.788619  1.834963  1.2  0.8  0  1;
  80  100  765  0.0488  19.5074  1.2  0.8  0  1;
  113  100  230  2.525782  1.223273  1.2  0.8  0  1;
  146  100  230  3.788619  1.834963  1.2  0.8  0  1;
  15  100  230  2.525782  1.223273  1.2  0.8  0  1;
  134  100  765  0.01308084  5.229012  1.2  0.8  0  1;
  32  100  230  6.3144  3.058236  1.2  0.8  0  1;
  116  100  230  2.427825  1.17586  1.2  0.8  0  1;
  98  100  765  0.0163  6.5025  1.2  0.8  0  1;
  24  100  115  0.4928475  0.2387039  1.2  0.8  0  1;
  136  100  230  0.1243752  0.06025764  1.2  0.8  0  1;
  161  100  230  1.057296  0.5120827  1.2  0.8  0  1;
  48  100  230  3.129859  1.515876  1.2  0.8  0  1;
  74  100  115  0.8092751  0.3919534  1.2  0.8  0  1;
  124  100  138  4.971255  2.407732  1.2  0.8  0  1;
  150  100  138  1.737071  0.8413553  1.2  0.8  0  1;
  46  100  138  1.737071  0.8413553  1.2  0.8  0  1;
  109  100  138  1.737071  0.8413553  1.2  0.8  0  1;
  154  100  138  8.92242  4.321288  1.2  0.8  0  0;
  122  100  115  0.8092751  0.3919534  1.2  0.8  0  1;
  38  100  115  0.2738131  0.1326043  1.2  0.8  0  1;
  105  100  230  0.0264  10.58  1.2  0.8  0  0;
  44  100  230  0.0264  10.58  1.2  0.8  0  0;
  54  100  115  0.05179762  0.03676594  1.2  0.8  0  1;
  137  100  230  0.0264  10.58  1.2  0.8  0  0;
  139  100  400  0.02  8  1.2  0.8  0  0;
  162  100  400  0.02  8  1.2  0.8  0  0;
  49  100  400  0.02  8  1.2  0.8  0  0;
  75  1322.5  230  0.0331  13.225  1.2  0.8  0  0;
  86  100  400  0.08  31.9999  1.2  0.8  0  0;
  79  100  400  0.04  16  1.2  0.8  0  1;
  91  100  400  0.04  16  1.2  0.8  1  0;
  50  100  230  0.0132  5.29  1.2  0.8  0  1;
  66  100  230  0.2738131  0.1326043  1.2  0.8  0  1;
  104  100  115  3.693407  1.817915  1.2  0.8  0  1;
  99  100  115  0.2738131  0.1326043  1.2  0.8  0  1;
  39  100  115  0.2738131  0.1326043  1.2  0.8  0  1;
  22  100  115  0.1642825  0.07956796  1.2  0.8  0  1;
  94  100  115  0.9856949  0.4774078  1.2  0.8  0  1;
  27  100  115  0.04932601  0.02521367  1.2  0.8  0  1;
  135  100  115  0.04932601  0.02521367  1.2  0.8  0  1;
  140  100  115  0.04932601  0.02521367  1.2  0.8  0  1;
  97  100  115  0.04932601  0.02521367  1.2  0.8  0  1;
  159  100  115  0.04932601  0.02521367  1.2  0.8  0  1;
  123  100  115  0.04932601  0.02521367  1.2  0.8  0  1;
  155  100  115  0.06214471  0.04411031  1.2  0.8  0  1;
  18  100  230  0.5216253  0.2526103  1.2  0.8  0  1;
  20  100  115  0.04932601  0.02521367  1.2  0.8  0  1;
  158  100  115  0.04932601  0.02521367  1.2  0.8  0  1;
  118  100  115  0.6003248  0.2907538  1.2  0.8  0  1;
  152  100  115  0.04932601  0.02521367  1.2  0.8  0  1;
  128  100  115  0.05179762  0.03676594  1.2  0.8  0  1;
  53  100  115  0.05179762  0.03676594  1.2  0.8  0  1;
  149  100  115  0.05179762  0.03676594  1.2  0.8  0  1;
  40  100  115  0.05179762  0.03676594  1.2  0.8  0  1;
  84  100  115  0.05179762  0.03676594  1.2  0.8  0  1;
 ];

Bus.names = {... 
  'Acarigua I'; 'Acarigua II 115kV'; 'Acarigua II 230kV'; 'Aragua 230kV'; 'Araure'; 
  'Barbacoa I 230kV'; 'Barbacoa II 230kV'; 'Barbacoa II 400kV'; 'Barinas I'; 'Barinas II'; 
  'Barinas III'; 'Barinas IV 115kV'; 'Barinas IV 230kV'; 'Boa Vista (Brasil)'; 'Boyaca 230kV'; 
  'Buena Vista 115kV'; 'Buena Vista 230kV'; 'Cabimas 230kV'; 'Cabudare 230kV'; 'Caja Seca'; 
  'Calabozo 230kV'; 'Cariaco'; 'Caruachi'; 'Casanay 115kV'; 'Casanay 230kV'; 
  'Caña de Azucar 230kV'; 'Cemento Andino'; 'Chicopata'; 'Ciudad Bolivar 230kV'; 'Ciudad Losada 230kV'; 
  'Ciudad Losada 400kV'; 'Convento 230kV'; 'Coro II'; 'Cuatricentenario 138kV'; 'Cuatricentenario 230kV'; 
  'Cuatricentenario 400kV'; 'Cuestecita (Colombia)'; 'Cumana II'; 'Cumana III'; 'Ejido'; 
  'El Callao II 400kV'; 'El Corozo 115kV'; 'El Corozo 230kV'; 'El Indio 230kV'; 'El Playon'; 
  'El Rincon 138kV'; 'El Rincon 230kV'; 'El Tablazo 230kV'; 'El Tablazo 400kV'; 'El Tigre 230kV'; 
  'El Tigre 400kV'; 'El Torereno'; 'El Vigia'; 'El Vigia II 115kV'; 'El Vigia II 230kV'; 
  'Elorza'; 'Furrial 230kV'; 'Furrial 400kV'; 'Gen. Anz 2012-1'; 'Gen. Anz 2012-2'; 
  'Gen. Guarico 2012'; 'Gen. Miranda 2012'; 'Gen. Zulia 2012'; 'Guanare'; 'Guanta II 115kV'; 
  'Guanta II 230kV'; 'Guasdualito'; 'Guayana A'; 'Guayana B'; 'Guri 230kV'; 
  'Guri 400kV A'; 'Guri 400kV B'; 'Guri 765kV'; 'Isiro 115kV'; 'Isiro 230kV'; 
  'Jose 400kV'; 'Junquito 230kV'; 'La Arenosa 230kV'; 'La Arenosa 400kV'; 'La Arenosa 765kV'; 
  'La Canoa 400kV'; 'La Concordia'; 'La Fria II'; 'La Grita'; 'La Horqueta 230kV'; 
  'La Horqueta 400kV'; 'La Horqueta 765kV'; 'La Libertad'; 'La Pedrera'; 'Las Claritas 230kV'; 
  'Las Claritas 400kV'; 'Las Flores 115kV'; 'Las Flores 230kV'; 'Luisa Caceres'; 'Macagua II'; 
  'Macaro 230kV'; 'Machango'; 'Malena 765kV'; 'Manzanares'; 'Masparro'; 
  'Merida I'; 'Merida II'; 'Monay'; 'Morochas 115kV'; 'Morochas 230kV'; 
  'Mucubaji'; 'P. Iguana'; 'P. Palmas'; 'P. Piedra 138kV'; 'P. Piedra 230kV'; 
  'Palital 400kV'; 'Palo Grande'; 'Papelon 230kV'; 'Pena Larga'; 'Peonias'; 
  'Planta Centro 230kV'; 'Planta Centro 400kV'; 'Planta Paez 115kV'; 'Planta Paez 230kV'; 'Planta Tachira'; 
  'Punto Fijo I'; 'Punto Fijo II'; 'Puricaure'; 'Ramon Laguna 138kV'; 'Rio Chico II'; 
  'San Agaton 230kV'; 'San Antonio'; 'San Carlos del Zulia'; 'San Cristobal I'; 'San Cristobal II'; 
  'San Diego 230kV'; 'San Fernando II 230kV'; 'San Geronimo 400kV'; 'San Geronimo 765kV'; 'San Lorenzo'; 
  'San Mateo 230kV'; 'Santa Elena'; 'Santa Teresa 230kV'; 'Santa Teresa 400kV'; 'Sidetruca'; 
  'Sipororo'; 'Socopo'; 'Sta. Barbara de Barinas'; 'Sur OMZ 230kV'; 'Sur OMZ 765kV'; 
  'Tacoa 230kV'; 'Termobarrancas 230kV'; 'Tiara 230kV'; 'Tovar'; 'Trinidad 138kV'; 
  'Trinidad 230kV'; 'Trujillo'; 'Turen'; 'Urdaneta 138kV'; 'Uribante 115kV'; 
  'Uribante 230kV'; 'Valencia 230kV'; 'Valera I'; 'Valera II'; 'Vueltosa 230kV'; 
  'Yaracuy 230kV'; 'Yaracuy 400kV'; 'Yaracuy 765kV'};

Varname.idx = [... 
   55;    62;    66;    73;    94;   100;   111;
  166;   173;   177;   184;   205;   211;   222;
   ];
